<?xml version="1.0" encoding="UTF-8"?>

<!-- generated on 11/23/20 11:27:00 by Eclipse SUMO netedit Version 1.3.1
<configuration xmlns:xsi="http://www.w3.org/2001/XMLSchema-instance" xsi:noNamespaceSchemaLocation="http://sumo.dlr.de/xsd/netconvertConfiguration.xsd">

    <input>
        <sumo-net-file value="\\ug.kth.se\dfs\home\b\a\barreau\appdata\xp.V2\Documents\GitHub\TrafficReconstructionIdentification\sumo\highway\highway.net.xml"/>
    </input>

    <output>
        <output-file value="\\ug.kth.se\dfs\home\b\a\barreau\appdata\xp.V2\Documents\GitHub\TrafficReconstructionIdentification\sumo\highway\highway.net.xml"/>
    </output>

    <processing>
        <geometry.max-grade.fix value="false"/>
        <offset.disable-normalization value="true"/>
        <opposites.guess.fix-lengths value="true"/>
        <lefthand value="false"/>
    </processing>

    <junctions>
        <no-turnarounds value="true"/>
        <junctions.corner-detail value="5"/>
        <junctions.limit-turn-speed value="5.5"/>
        <rectangular-lane-cut value="false"/>
    </junctions>

    <pedestrian>
        <walkingareas value="false"/>
    </pedestrian>

</configuration>
-->

<net version="1.3" junctionCornerDetail="5" limitTurnSpeed="5.50" xmlns:xsi="http://www.w3.org/2001/XMLSchema-instance" xsi:noNamespaceSchemaLocation="http://sumo.dlr.de/xsd/net_file.xsd">

    <location netOffset="0.00,0.00" convBoundary="-500.00,-100.00,3000.00,0.00" origBoundary="-10000000000.00,-10000000000.00,10000000000.00,10000000000.00" projParameter="!"/>

    <edge id=":gneJ4_0" function="internal">
        <lane id=":gneJ4_0_0" index="0" speed="33.00" length="19.31" shape="2482.84,-5.06 2487.17,-4.11 2492.29,-2.96 2497.43,-2.00 2501.82,-1.60"/>
    </edge>
    <edge id=":gneJ4_1" function="internal">
        <lane id=":gneJ4_1_0" index="0" speed="33.00" length="19.32" shape="2482.50,-1.60 2501.82,-1.60"/>
    </edge>

    <edge id="gneE1" from="gneJ3" to="gneJ4" priority="-1">
        <lane id="gneE1_0" index="0" speed="33.00" length="2982.50" shape="-500.00,-1.60 2482.50,-1.60"/>
    </edge>
    <edge id="gneE2" from="gneJ4" to="gneJ5" priority="-1">
        <lane id="gneE2_0" index="0" speed="33.00" length="498.18" shape="2501.82,-1.60 3000.00,-1.60"/>
    </edge>
    <edge id="gneE3" from="gneJ6" to="gneJ4" priority="-1">
        <lane id="gneE3_0" index="0" speed="33.00" length="492.09" shape="2000.31,-101.57 2482.84,-5.06"/>
    </edge>

    <junction id="gneJ3" type="dead_end" x="-500.00" y="0.00" incLanes="" intLanes="" shape="-500.00,0.00 -500.00,-3.20"/>
    <junction id="gneJ4" type="priority" x="2500.00" y="0.00" incLanes="gneE3_0 gneE1_0" intLanes=":gneJ4_0_0 :gneJ4_1_0" shape="2501.82,0.00 2501.82,-3.20 2497.79,-3.33 2494.83,-3.68 2492.42,-4.22 2490.02,-4.92 2487.11,-5.73 2483.16,-6.63 2482.53,-3.49 2482.50,-3.20 2482.50,0.00">
        <request index="0" response="00" foes="10" cont="0"/>
        <request index="1" response="01" foes="01" cont="0"/>
    </junction>
    <junction id="gneJ5" type="dead_end" x="3000.00" y="0.00" incLanes="gneE2_0" intLanes="" shape="3000.00,-3.20 3000.00,0.00"/>
    <junction id="gneJ6" type="dead_end" x="2000.00" y="-100.00" incLanes="" intLanes="" shape="2000.00,-100.00 2000.63,-103.14"/>

    <connection from="gneE1" to="gneE2" fromLane="0" toLane="0" keepClear="0" via=":gneJ4_1_0" dir="s" state="m"/>
    <connection from="gneE3" to="gneE2" fromLane="0" toLane="0" keepClear="0" via=":gneJ4_0_0" dir="s" state="M"/>

    <connection from=":gneJ4_0" to="gneE2" fromLane="0" toLane="0" dir="s" state="M"/>
    <connection from=":gneJ4_1" to="gneE2" fromLane="0" toLane="0" dir="s" state="M"/>

</net>
