<configuration>
 <input>
 <net-file value="highway.net.xml"/>
 <route-files value="highway.rou.xml"/>
 </input>
 <time>
 <begin value="0"/>
 <end value="12000"/>
 </time>
</configuration>
